<?xml version="1.0"?>

<!-- generated on Wed Aug 26 09:01:42 2015 by SUMO duarouter Version dev-SVN-r18727I
<?xml version="1.0" encoding="UTF-8"?>

<configuration xmlns:xsi="http://www.w3.org/2001/XMLSchema-instance" xsi:noNamespaceSchemaLocation="http://sumo.dlr.de/xsd/duarouterConfiguration.xsd">

    <input>
        <net-file value="../TAPASCologne-0.24.0/cologne2.net.xml"/>
        <additional-files value="../TAPASCologne-0.24.0/vtypes.add.xml"/>
        <route-files value="cologne.rou.xml"/>
    </input>

    <output>
        <output-file value="cologne6to8.rou.xml"/>
        <vtype-output value="vtypes.xml"/>
    </output>

    <processing>
        <skip-new-routes value="true"/>
    </processing>

    <time>
        <begin value="21600"/>
        <end value="28801"/>
    </time>

    <report>
        <log value="6to8log"/>
    </report>

</configuration>
-->

<routes xmlns:xsi="http://www.w3.org/2001/XMLSchema-instance" xsi:noNamespaceSchemaLocation="http://sumo.dlr.de/xsd/routes_file.xsd">
    <vehicle id="35936_35936_355_0" type="pkw" depart="21600.00">
        <route edges="132610077#0 132610062#3 132610108#0 225924659#2 -283068690 283068690 225924661 132610106#0 225924653#1"/>
    </vehicle>
    <vehicle id="47187_47187_364_0" type="pkw" depart="21600.00">
        <route edges="245122333#2 168898881#0 260192889 41676631 245123471 5069544 24477641 220567384 30746501 5552871 8054393 154842213 278328109 8054394 328980682 328980685 253093567 328984619 302370855 302370855-AddedOffRampEdge 302370860"/>
    </vehicle>
    <vehicle id="48398_48398_366_0" type="pkw" depart="21600.00">
        <route edges="-264791811 -132545224#5 -132545224#3 -132545224#1 132540165#0 132540165#2 275833366 132540394#0 132540394#2 275833365#1 275833365#2 159576258 132540354 132540217 158695458 132539906 283073226 283073225 25798236 283068673 125777193"/>
    </vehicle>
    <vehicle id="39331_39331_360_0" type="pkw" depart="21601.00">
        <route edges="86121590#0 86121590#3 230336791#0 230336791#2 130140307#0 -202527579 4229596#0 204177812#0 4400142#0"/>
    </vehicle>
    <vehicle id="47143_47143_364_0" type="pkw" depart="21601.00">
        <route edges="-132540232 -132540069#1 132540398#0 132540398#1 159556201 329143680#0 329143680#1 275825308#1 275825308#3 132540397#0 -205976505#6 -205976505#4 -205976505#3 -132540158#2"/>
    </vehicle>
    <vehicle id="51569_51569_370_0" type="pkw" depart="21601.00">
        <route edges="132540158#0 205976505#2 205976505#4 205976505#5 132540396#0 275833366 132540394#0 132540394#2 275833365#1 275833365#2 159576258 132540354 132540217 158695458 132539906 283073226 283073225 25798236 283068673 125777193"/>
    </vehicle>
    <vehicle id="39614_39614_360_0" type="pkw" depart="21602.00">
        <route edges="283068687#0 225924659#0 225924659#2 -283068690 -225924660 132610090 125777193"/>
    </vehicle>
    <vehicle id="47632_47632_365_0" type="pkw" depart="21602.00">
        <route edges="10358660#0 10358660#1 10358616#0 34495250 23945006 146236119#0 305426557 146236120 305426558 334680947 146236117#0 146236076#0 146236076#1 146235907#2 146235907#3 -116082038#2 -116082038#1 -30834492#1 -291503929#5 -291503929#0 -28895629#0 28895620#0 -14562995#2 31797298 116082045 116081923"/>
    </vehicle>
    <vehicle id="51342_51342_369_0" type="pkw" depart="21602.00">
        <route edges="283068677 283068675 283068676 283068674 283080515 283080504 238865723 283080498 283080519 133860033 283076458 283076458-AddedOffRampEdge"/>
    </vehicle>
    <vehicle id="41092_41092_361_0" type="pkw" depart="21603.00">
        <route edges="283068687#0 225924659#0 225924659#2 -283068690 -225924660 132610090 125777193"/>
    </vehicle>
    <vehicle id="42287_42287_361_0" type="pkw" depart="21603.00">
        <route edges="21257016#2 -21257016#2 62224625#3 166054718#1 166054718#2 166054718#5 64982079 -51239802#2 156361423#2 321377709#0 321377709#1 321377710 321377711#0 321377711#1 350402364#0 350402361#0 316406418#0 331080861 156364203#0 156364203#3 156364202 22605623 49875616#1 55289622#1 -69567877#3 69567885#0 69567885#2 -22644210#6 -22644210#5 -22644210#4 -22644210#3 -22644210#1 -22644210#0 -28577902 -164947005 -28577901#3 -28577901#2 156173978#0 164930210#0 164930210#5 164930210#6 164930210#7 49773707#0 219701151#0 217342719#0 230219579#0 326740957#0 326740957#1 326740957#2 -219701160 -49436564#3 -49436564#0 -156173980#1"/>
    </vehicle>
    <vehicle id="39281_39281_360_0" type="pkw" depart="21604.00">
        <route edges="134517228 -134517228 -202527577#7 -202527577#6 -202527577#5 -202527577#0 -202527576#0 4229593#0 154520784#0 204177814#0 204177812#0 4400142#0"/>
    </vehicle>
    <vehicle id="42931_42931_361_0" type="pkw" depart="21604.00">
        <route edges="283068676 283068674 283080515 283080504 52403668 133755388"/>
    </vehicle>
    <vehicle id="52628_52628_370_0" type="pkw" depart="21604.00">
        <route edges="27359993 -27359993 -27359991#3 -27359991#1 142766502#7 142766502#8 36714415#0 8195861#0 8195861#3 8195861#5 32637007#0 32637007#5 32637007#9 31721337#0 31721337#2 31721337#3 31721337#4 31721337#6 31721337#9 42086319#0 136317018#0 -223342648#3 -223342648#2 -223342648#1 -134517227#1 -134517227#0 -134517228 -202527577#7 -202527577#6 -202527577#5 -202527577#0 -202527576#0 4229593#0 154520784#0 204177814#0 204177812#0 4400142#0"/>
    </vehicle>
    <vehicle id="38766_38766_359_0" type="pkw" depart="21605.00">
        <route edges="5367038 338165603 338165599 51240791#0 -51240788 -51240796#1 20790509#0 20790509#1 -22891669 -22891631#6 -22891631#4 -22891631#3 -22891631#2 -22891631#1 56752022#1 56752022#3 202582776#0 202582776#2 202582776#3 51240798#0 61321520#0 61321520#1 20302539 56752114#0 56752114#2 61321545#0 -61321545#1 61321529#0 61321530#0 49612855#0 9619005#0 9619005#2 155723667#2 155723667#3 -155723645#5 -155723645#0 155723646#0 155723646#1 155723646#2 133374887#0 133374887#1 133374887#2 133374887#4 297011908 -297011901 -155424466#1 26704577#0 184227237 297011916 297011929#1 76128221 76128219#0 76128219#2 295644518#1 76128217 295644508 157239646 203091859 157140427 65417594 9614234 22909113 60860929 111465042 301084468 321188527 81852046 301084576 338209142 301084567 219188462 226991213 166914724 338209141 20895437 338209140 301084497 301084487 132545199 301084454 208913387 208913388 219188458 315649555"/>
    </vehicle>
    <vehicle id="38949_38949_359_0" type="pkw" depart="21605.00">
        <route edges="20685024#2 20685024#3 21506340 157383287#2 59291971 157383245#3 22747340#0 22747340#1 22747340#2 22747340#3 -53048585 53048587#0 53048583#0 53048583#1 186645661#1 132524620 201954462#0 205994022#0 5057250 49931147#0 198356548#0 198356548#1 198356548#4 198356548#5 362558746 -206084893 -51574945#1 -339822112#3 -339822112#2 -339822113 -343201176#4 -155289634#2 -343200134#2 -343200134#0 -94587479#9 -94587479#1 -205991620#5 32021852#2 32021844#0 32021845#0 32021845#4 32021845#5 4999330#0 32021840#0 32021840#4 319261593#0 319261593#2 319261593#5 319261593#7 319261593#8 319261593#10 319261593#12 319261593#15 319261593#16 4145590#0 31864807 241678519 241678520#0 241678520#1 31973378#0 31908938#0 31908938#3 31973377#0 31973376#0 4045258#0 4045258#5 31973375#0 150031299#1 150031299#4 150031299#6 31973371#0 31973371#1 31973371#4 31973371#5 31721946#0 31973370#0 31973370#1 43653947#1 43653948#0 43653948#3 -81975346 -31799917#1"/>
    </vehicle>
    <vehicle id="40728_40728_360_0" type="pkw" depart="21605.00">
        <route edges="275825294#5 138359799#0 69091661#0 85417965#3 151765520#1 151765520#2 151765520#3 205993400#0 205993400#2 45374696#0 141253053#0 30227077#2 258509855 208913387 208913388 219188458 315649555"/>
    </vehicle>
    <vehicle id="52122_52122_370_0" type="pkw" depart="21605.00">
        <route edges="247103652 281764562 133262434 283080511 283080501 283073226 283073225 25798236 283068673 125777193"/>
    </vehicle>
    <vehicle id="37176_37176_357_0" type="pkw" depart="21606.00">
        <route edges="283080529 132539909 283080524 144906995 283080511 283080501 283073226 283073225 25798236 283068673 125777193"/>
    </vehicle>
    <vehicle id="51669_51669_370_0" type="pkw" depart="21606.00">
        <route edges="132545224#2 132545224#4 132545226#0"/>
    </vehicle>
    <vehicle id="36461_36461_356_0" type="pkw" depart="21607.00">
        <route edges="4073364#1 32635407#0 32635407#1 32041423#5 31536989 32041422#0 32041422#1 31721950#0 31721950#1 31721950#4 31721950#6 31721950#9 57017440#0 91012538#1 58811853#0 340443759 340443763 32635130 340443765 340443767 340443764#0 -32635135#2 -28841605 4045161 150594022#2 150594021#0 4045164#0 115106778#2 115106778#3 26784170#0 26784170#3 154502579#0 27115018 198171539#0 198171539#2 169453887#0 145345138#0 145345138#1 315921077#0 315921077#1 -315921078#2 -219188460#0 -154755109 -202654192 -63566383 -288162959 -63530469 37276383 32308866#0 37746015#0 4531783 26658782#0 26658784#1 120312036#0 120312036#1 332305006 332287592#0 9621579 37131477#0 36690313#0 332299540#1 48274301#0 36690314#0 4532355 48273909 -328982210 -334427153 -4532354 202132816 132406488#0 26219607#0 132406484#3 132406503 20832138#0 20832138#2 80955422#2 132406510#0 132406510#2 132406506#0 132630691#0 146235929#0 146235929#1 85255023#0 85255023#2 85255023#4 7848148#1 7848148#2 7848148#4 26452244#1 146236039 159404635#2 -14560326#2 -14560326#1 -14560326#0 61226122#1 146505410 116082045 116081923"/>
    </vehicle>
    <vehicle id="36520_36520_356_0" type="pkw" depart="21607.00">
        <route edges="-264791811 148324143#0 207881868#1 207881868#3 207881868#4 198180159#0 26494089#0 26494089#1 26494089#2 85417930 85417965#0 85417965#3 151765520#1 151765520#2 151765520#3 205993400#0 205993400#2 45374696#0 45374696#6 258509846 22670858 48995214#0 258509850#0 258509850#1 247632752 247632753 247632756 48995212#0 53505582#1 -108831983 -292052841 -123757783 -123757782 -42739993 -292052843 -331032365 -116017176#1 30857766 95664988#0 95664988#1 159404635#1 159404635#2 159404635#3 159404635#4 159404635#5 290516105#0 146236003 206585415 288192130 8659473#0 26493930 42739994#0 26493958 185283366 185283367 185283368 37744228#0 8659392 8659391 349784051 159226273 159226275 349784052 25138862 -78257530#4 25449392#0 25449392#7 -155602769 134074457 134074460#0 134572125 80179188 25351717 326739748 80179189 49436081 8204013"/>
    </vehicle>
    <vehicle id="41438_41438_361_0" type="pkw" depart="21607.00">
        <route edges="133081509#2 24499588#0 24499261#0 24499592 28930175#3 28930172#0 28930172#5 28930172#6 -28675558#2 28675559#0 52520378#0 52520378#1 52520378#2 52520377 22917767#0 349762013 23860555#0 23860555#1 23860555#2 23860555#3 -164930215 -164962474 -297047302 -28675510#11 -28675510#5 -28675510#3 -28675510#0 -133081985#1 -133081985#0 -309744810#1 -133081987#2 -23686088#1 -23686088#0 4936412 155428551#0 155428551#2 155428551#4 297011918 297011920#1 155424470 297011926#0 184227237 297011916 297011929#1 76128221 76128219#0 76128219#2 295644518#1 76128217 295644508 157239646 203091859 157140427 65417594 9614234 22909113 60860929 111465042 301084468 321188527 81852046 301084576 132406516 132406510#0 132406510#2 132406506#0 132630691#0 146235929#0 146235929#1 85255023#0 85255023#2 85255023#4 7848148#1 7848148#2 7848148#4 26452244#1 146236039 159404635#2 -14560326#2 -14560326#1 -14560326#0 61226122#1 146505410 116082045 116081923"/>
    </vehicle>
    <vehicle id="50525_50525_368_0" type="pkw" depart="21607.00">
        <route edges="8066530 323472768#5 323472768#6 323472768#7 323472768#9 323472768#10 323472768#12 323472768#13 323472768#14 323472768#15 323472768#16 323472768#17 148324131#0 148324143#0 207881868#1"/>
    </vehicle>
    <vehicle id="51828_51828_370_0" type="pkw" depart="21607.00">
        <route edges="247103652 281764562 133262434 283080511 283080501 283073226 283073225 25798236 283068673 125777193"/>
    </vehicle>
    <vehicle id="38636_38636_359_0" type="pkw" depart="21608.00">
        <route edges="-8196681#4 8196681#4 8195833 217129665#0 37331987#0 217129663 8196047#0 8196047#2 261543615#1 170040391 -27815919#2 -150222610#7 -150222610#3 -150222610#2 -150222610#1 -32637408 150222600#0 150222600#4 150222600#8 150222600#10 -39668998 -136317016#1 -223342648#3 -223342648#2 -223342648#1 -134517227#1 -134517227#0 -134517228 -202527577#7 -202527577#6 -202527577#5 -202527577#0 -202527576#0 4229593#0 154520784#0 204177814#0 204177812#0 4400142#0"/>
    </vehicle>
    <vehicle id="40779_40779_360_0" type="pkw" depart="21608.00">
        <route edges="258507171 132530779#1 205993401#0 205993401#3 49188340#1 57675168#1 57675168#2 85417969 85417940#0 85417940#2 85417940#3 205976504#0 -207881868#8 -207881868#3 -207881868#2 -207881868#0 132545226#0"/>
    </vehicle>
    <vehicle id="41234_41234_361_0" type="pkw" depart="21608.00">
        <route edges="-202650119 154520794 235839989#0 267388712 227833724 204177813#0 154520784#0 204177814#0 204177812#0 4400142#0"/>
    </vehicle>
    <vehicle id="43135_43135_362_0" type="pkw" depart="21608.00">
        <route edges="155592912#0 28675030#0 132933506#1 49436743 49436742#0 49436742#1 133530797#0 155602773#0 155602773#2 134074458#0 134074458#4 134074458#14"/>
    </vehicle>
    <vehicle id="51387_51387_369_0" type="pkw" depart="21608.00">
        <route edges="146235963 245703240 9519690 245703238#0 245703238#1 245703238#3 9494307 198352114#0 9636773"/>
    </vehicle>
    <vehicle id="49208_49208_367_0" type="pkw" depart="21609.00">
        <route edges="283068677 283068675 283068676 283068674 283080515 283080504 52403668 133755388"/>
    </vehicle>
    <vehicle id="49905_49905_367_0" type="pkw" depart="21609.00">
        <route edges="283068687#0 225924659#0 225924659#2 -283068690 -225924660 132610090 125777193"/>
    </vehicle>
    <vehicle id="34246_34246_352_0" type="pkw" depart="21610.00">
        <route edges="283068677 283068675 283068676 283068674 283080515 283080504 238865723 283080498 75503635 283076461 132539932 283080529 132539920 132635726 132540198 158695461 329143678 132540209 159556201 132539991 166715999#1 166715999#4 166715999#5 132614518#0 166716008#0 166716003#0"/>
    </vehicle>
    <vehicle id="39985_39985_360_0" type="pkw" depart="21610.00">
        <route edges="-32390175#2 -32390175#1 -32390175#0 32390176#0 32390176#1 32390176#2 32390176#3 32390176#4 32390176#5 32637007#0 32637007#5 32637007#9 31721337#0 31721337#2 31721337#3 31721337#4 31721337#6 31721337#9 42086319#0 136317018#0 -223342648#3 -223342648#2 -223342648#1 -134517227#1 -134517227#0 -134517228 -202527577#7 -202527577#6 -202527577#5 -202527577#0 -202527576#0 4229593#0 154520784#0 4229595 202527579 -202527579 4229596#0 204177812#0 4400142#0"/>
    </vehicle>
    <vehicle id="40264_40264_360_0" type="pkw" depart="21610.00">
        <route edges="247103652 281764562 133262434 283080511 283080501 283073226 283073225 25798236 283068673 125777193"/>
    </vehicle>
    <vehicle id="51038_51038_369_0" type="pkw" depart="21611.00">
        <route edges="261140079#3 262578157#0 150222604#6 150222604#7 150222604#9 198357402#0 26409859#0 188330281 149488164#0 149488164#1 32636913#0 272350245 86121592#0 86121592#2 86121592#6 204124781#0 86121603#2 -27406116#1"/>
    </vehicle>
    <vehicle id="36121_36121_355_0" type="pkw" depart="21612.00">
        <route edges="20442527#15 -20441289#2 -20441289#1 20446586#0 -325325156#2 -325325156#1 -325325157 -325325159 -325325158 -20446486 75642193#0 325447374#0 8166420#0 94587485#1 26751740#0 26751739#0 26751739#1 26751739#3 -8266564#1 -8266564#0 -8266562#1 157393595#5 157393595#7"/>
    </vehicle>
    <vehicle id="39464_39464_360_0" type="pkw" depart="21612.00">
        <route edges="230336791#0 230336791#2 130140307#0 -202527579 4229596#0 204177812#0 4400142#0"/>
    </vehicle>
    <vehicle id="45083_45083_362_0" type="pkw" depart="21612.00">
        <route edges="159556200#1 -132540395 132540232"/>
    </vehicle>
    <vehicle id="34062_34062_352_0" type="pkw" depart="21613.00">
        <route edges="19724186#1 -19724186#2 19724392#0 -97829259 97829256 132610021#0 -132610022#7 -132610022#5 -166131730#2 -166148845#2 -182441350#1 -334492399#1 -166128467 -334482140 334482139 334482137 166128470 -334482138 -205272293 -132408354 202705923 205272294 -338407172#2 -338407172#1 160797930 -129382742#0 -61482903#6 -61482903#5 -61482903#3 -129382750 -296950370#1 -338407173#4 -338407173#0 132530810#0 132530810#4 132530810#6 132530803#0 132530803#1 132530803#2 132531157#0 294411870#0 294411870#1 294411870#2 95555895 132530880 60858520 60858525 60858518#0 60858518#1 135337512#0 42551576#0 238060862#0 238060862#1 238060870 85255399#0 85255399#2 186406939#0 288352281#0 132630769#1 132630769#3 132630768 7848148#1 7848148#2 7848148#4 26452244#1 146236039 159404635#2 -14560326#2 -14560326#1 -14560326#0 61226122#1 146505410 116082045"/>
    </vehicle>
    <vehicle id="39720_39720_360_0" type="pkw" depart="21613.00">
        <route edges="-264791811 148324143#0 207881868#1 207881868#3 207881868#4 198180159#0 26494089#0 26494089#1 26494089#2 85417930 85417965#0 85417965#3 151765520#1 151765520#2 151765520#3 205993400#0 205993400#2 45374696#0 45374696#6 258509846 22670858 48995214#0 258509850#0 258509850#1 247632752 247632753 247632756 48995212#0 53505582#1 -108831983 -292052841 -123757783 -123757782 -42739993 -292052843 -331032365 -116017176#1 30857766 95664988#0 95664988#1 159404635#1 159404635#2 159404635#3 159404635#4 159404635#5 290516105#0 146236003 206585415 288192130 8659473#0 26493930 42739994#0 26493958 185283366 185283367 185283368 37744228#0 8659392 8659391 349784051 159226273 159226275 349784052 25138862 -78257530#4 25449392#0 25449392#7 -155602769 134074457 155602774#0 134074463#0 155602773#2 134074458#0 134074458#4 134074458#14"/>
    </vehicle>
    <vehicle id="43688_43688_362_0" type="pkw" depart="21614.00">
        <route edges="231797780#0 -231797780#1 -52437763 -164962472 -349762014#0 -349762012#0 -22917767#1 28700198#0 28700198#2 28700198#5 28700198#6 28947227#0 28947227#1 -69565642#1 69565654#2 69565644 69565657#0 22644196 344004077#1 22644185 -69565662#1 -69565662#0 69565670#1 69565670#2 69565666#0 311257126#1 311257126#2 311257126#3 24500212#0 -225260680#0 28946126#5 28946126#6 28946126#7 28946126#8 27356380 49854342#1 346664898 156173981#0 346664903#0 230219583#0"/>
    </vehicle>
    <vehicle id="44100_44100_362_0" type="pkw" depart="21614.00">
        <route edges="35954406#6 35954406#7 35954406#10 203110164 245700275#0 254615187#0 254615186#0 45492447#1 45492447#2 245700272 146235968 146235963 245703240 9519690 245703238#0 245703238#1 245703238#3 9494307 198352114#0 9636773"/>
    </vehicle>
    <vehicle id="45449_45449_362_0" type="pkw" depart="21614.00">
        <route edges="-204143065 -60922731 7854031#0 7854031#3 157104082 4229607 157434654#0 23075283"/>
    </vehicle>
    <vehicle id="36544_36544_356_0" type="pkw" depart="21615.00">
        <route edges="283080529 132539909 283080524 144906995 283080511 283080501 283073226 283073225 25798236 283068673 125777193"/>
    </vehicle>
    <vehicle id="41009_41009_361_0" type="pkw" depart="21615.00">
        <route edges="247103652 281764562 133262434 283080511 283080501 283073226 283073225 25798236 283068673 125777193"/>
    </vehicle>
    <vehicle id="43177_43177_362_0" type="pkw" depart="21615.00">
        <route edges="37191915#0 37191915#2 -130160206#1 4146753 64487932#1 64487932#2 64487932#6 64487932#7 31722692#0 150031202#0 150031202#3 23739618 204007997#8 204007997#9 204007997#10 204007997#11 74889297#0 74889297#1 74889294#0 74889294#1 -28542797#3 -28542797#2 -28542797#1 -28542797#0 -352874061#7 -352874061#5 203141163#0"/>
    </vehicle>
    <vehicle id="45028_45028_362_0" type="pkw" depart="21615.00">
        <route edges="32637155#0 32637155#2 8195861#0 8195861#3 8195861#5 32637007#0 32637007#5 32637007#9 31721337#0 31721337#2 31721337#3 31721337#4 31721337#6 31721337#9 42086319#0 136317018#0 -223342648#3 -223342648#2 -223342648#1 -134517227#1 -134517227#0 -134517228 -202527577#7 -202527577#6 -202527577#5 -202527577#0 -202527576#0 4229593#0 154520784#0 4229595 202527579 -202527579 4229596#0 204177812#0 4400142#0"/>
    </vehicle>
    <vehicle id="48773_48773_366_0" type="pkw" depart="21615.00">
        <route edges="30284547 -30284547 30284538#9 -147053202#1 146235963 245703240 9519690 245703238#0 245703238#1 245703238#3 9494307 198352114#0 9636773"/>
    </vehicle>
    <vehicle id="34043_34043_352_0" type="pkw" depart="21616.00">
        <route edges="283080529 132539909 283080524 144906995 283080511 283080501 283073226 283073225 25798236 283068673 125777193"/>
    </vehicle>
    <vehicle id="34127_34127_352_0" type="pkw" depart="21616.00">
        <route edges="156593389#0 188676296#7 188676296#8 264613996#0 257526882 42758994#0 31722689#1 31722694#0 241680751 241678516 -31864814#1 -74889293#3 -74889293#2 -74889293#1 -74889293#0 74889297#1 74889294#0 74889294#1 -28542797#3 -28542797#2 -28542797#1 -28542797#0 -352874061#7 -352874061#5 203141163#0"/>
    </vehicle>
    <vehicle id="35579_35579_354_0" type="pkw" depart="21616.00">
        <route edges="22644239#0 156149065#6 22644215#0 22914567 -22914566#2 22914568 -26298756#2 22690835#0 22690835#1 22690835#2 22690835#4 219701151#0 217342719#0"/>
    </vehicle>
    <vehicle id="37776_37776_358_0" type="pkw" depart="21616.00">
        <route edges="283080529 132539909 283080524 144906995 283080511 283080501 283073226 283073225 25798236 283068673 125777193"/>
    </vehicle>
    <vehicle id="40902_40902_360_0" type="pkw" depart="21616.00">
        <route edges="60308930#0 148324131#0 -132545224#5 -132545224#3 -132545224#1 132540165#0 132540165#2 275833366 132540394#0 132540394#2 275833365#1 275833365#2 159576258 132540354 132540217 158695458 132539906 283073226 283073225 25798236 283068673 125777193"/>
    </vehicle>
    <vehicle id="50647_50647_368_0" type="pkw" depart="21616.00">
        <route edges="132614566#0 -132614554#12 -132614554#11 -132614554#10 -132614554#9 -132614554#8 -132614554#6 -132614554#5 132614547#1 132614547#2 -132545224#1 132540165#0 132540165#2 275833366 132540394#0 132540394#2 275833365#1 275833365#2 159576258 132540354 132540217 158695458 132539906 283073226 283073225 25798236 283068673 125777193"/>
    </vehicle>
    <vehicle id="36616_36616_356_0" type="pkw" depart="21617.00">
        <route edges="32609994 -32609994 -32609993#0 -155592973#5 -155592973#4 -155592973#3 -155592973#2 -155592973#1 -42925825#2 -186623965#14 -186623965#8 -186623965#7 -186623965#5 -186623965#3 -186623965#1 -51236920#2 -132933508#2 -133059917#2 -186623963 28675445#0 28675445#2 25597251#0 155602771 134074465#0 134572125 80179188 25351717 326739748 80179189 49436081 49436080 219594040 219594040-AddedOffRampEdge 4291889"/>
    </vehicle>
    <vehicle id="36984_36984_357_0" type="pkw" depart="21617.00">
        <route edges="-264791811 -132545224#5 -132545224#3 -132545224#1 132540165#0 132540165#2 275833366 132540394#0 132540394#2 275833365#1 275833365#2 159576258 132540354 132540217 158695458 132539906 283073226 283073225 25798236 283068673 125777193"/>
    </vehicle>
    <vehicle id="44903_44903_362_0" type="pkw" depart="21617.00">
        <route edges="49054748#0 -59181485 -49008960#1 -49008960#0 97102780#0 -309637396#6 -309637396#3 -309637396#2 -309637396#1 -309637396#0 -309637397 61732797#3 199905316 136428637#1 157424484 159226261 154473909 157424934 185283380 8204171#0 146235931#0 146235931#2 37744224#0 85264014#2 153390906 291431488 85255023#0 85255023#2 85255023#4 -132630664#2 132630770#0 132630770#1 132630770#2 31486670#0 186406938#0 186406937 176361847#0 176361847#1 176361847#2 247632776#1 247632783#0 247632783#1 48995677 247632780 48995678#0 205988341#2 205988341#5 132530730#0 258509849#1 30227077#0 30227077#2 258509855 208913387 208913388 219188458 315649555"/>
    </vehicle>
    <vehicle id="34924_34924_353_0" type="pkw" depart="21618.00">
        <route edges="-202650119 154520794 235839989#0 267388712 227833724 204177813#0 154520784#0 4229595 202527579 -202527579 4229596#0 204177812#0 4400142#0"/>
    </vehicle>
    <vehicle id="39621_39621_360_0" type="pkw" depart="21618.00">
        <route edges="132540158#0 205976505#2 205976505#4 205976505#5 132540396#0 275833366 132540394#0 132540394#2 275833365#1 275833365#2 159576256 159556200#1 -132540395 132540232"/>
    </vehicle>
    <vehicle id="39694_39694_360_0" type="pkw" depart="21618.00">
        <route edges="283068687#0 225924659#0 225924659#2 -283068690 -225924660 132610090 125777193"/>
    </vehicle>
    <vehicle id="41293_41293_361_0" type="pkw" depart="21618.00">
        <route edges="283068677 283068675 283068676 283068674 283080515 283080504 238865723 283080498 283080519 133860033 283076458 283076458-AddedOffRampEdge"/>
    </vehicle>
    <vehicle id="42031_42031_361_0" type="pkw" depart="21618.00">
        <route edges="-130160207#0 241660955#17 28523868#0 28523868#2 340337295#0 265984914#0 200467007 289753604 27115122#0 255094956#0 255094956#1 2936806#0 113160347#0 113160347#1 255104326 51681577#1 321451886 321451887#0 198182234#0 306548771 321451888#0 321451888#3 30767420#0 30767420#2 321456988#0 321456991#0 321456991#2 322459553 168898881#0 260192889 41676631 245123471 5069544 245123473 5069540#0 226991211 24024442 86144284 22740714 155563747 208424304#0 132653971 132653972#0 23687290 76128217 295644508 157239646 203091859 157140427 65417594 9614234 22909113 60860929 111465042 301084468 321188527 81852046 301084576 132406516 132406510#0 132406510#2 132406506#0 132630691#0 146235929#0 146235929#1 85255023#0 85255023#2 85255023#4 7848148#1 7848148#2 7848148#4 289862865#0 289862865#1 159404635#1 159404635#2 -14560326#2 -14560326#1 -14560326#0 61226122#1 146505410 116082045 116081923"/>
    </vehicle>
    <vehicle id="34930_34930_353_0" type="pkw" depart="21619.00">
        <route edges="129382004#3 61482903#0 61482903#4 61482903#6 129382751 205966067#0 338407172#2 -205272294 -202705923 132408412#0 329035701 329035703 329035705 317362559 132539940 283073227"/>
    </vehicle>
    <vehicle id="47296_47296_364_0" type="pkw" depart="21619.00">
        <route edges="4400311#0 83703645 23493040 23493177#0 326986553 154755115#0 4400297#0 205044667 53212168#0 130875842 4400200 4400201 4400202 110967367#0 349603487 154743410 219429246#0 257534607 349603486#0 185767960 9207798 -147549213 -37705430 -36590980 -30767370#2 -30767370#1 -30767194#3 -30767194#2 -56454981 110520975#0 110520975#2 30767420#2 321456988#0 321456991#0 321456991#2 322459553 168898881#0 260192889 41676631 245123471 5069544 24477641 220567384 30746501 5552871 8054393 154842213 278328109 8054394 328980682 328980685 253093567 328984619 302370855 302370855-AddedOffRampEdge 302370860"/>
    </vehicle>
    <vehicle id="50878_50878_369_0" type="pkw" depart="21619.00">
        <route edges="130147381 130147382#4 28523862 28198821#0 28198821#2 28198821#3 32324544#0 32324544#2 144599476 31557255#0 36227986#0 36227986#4 34962532#0 32040978#0 27355187#0 31722070#1 31722070#3 198353850#0 198353850#2 198353850#5 -27462504#7 -27462504#6 -27462504#5 -27462504#4 -27462504#3 -27462504#1 -27462504#0 -24465915#1 -27661369 -32390175#9 -32390175#7 -32390175#6 -32390175#5 -32390175#4 -32390175#3 -32390175#2 -32390175#1 -32390175#0 32390176#0 32390176#1 32390176#2 32390176#3 32390176#4 32390176#5 32637007#0 32637007#5 32637007#9 31721337#0 31721337#2 31721337#3 31721337#4 31721337#6 31721337#9 42086319#0 136317018#0 -223342648#3 -223342648#2 -223342648#1 -134517227#1 -134517227#0 -134517228 -202527577#7 -202527577#6 -202527577#5 -202527577#0 -202527576#0 4229593#0 154520784#0 4229595 202527579"/>
    </vehicle>
    <vehicle id="36286_36286_356_0" type="pkw" depart="21620.00">
        <route edges="283068687#0 225924659#0 225924659#2 -283068690 -225924660 132610090 125777193"/>
    </vehicle>
    <vehicle id="38533_38533_359_0" type="pkw" depart="21620.00">
        <route edges="23840196#2 -23840196#2 -23840196#1 -23840196#0 -254655130#1 254615186#0 45492447#1 45492447#2 245700272 146235968 146235963 245703240 9519690 245703238#0 245703238#1 245703238#3 9494307 198352114#0 9636773"/>
    </vehicle>
    <vehicle id="41096_41096_361_0" type="pkw" depart="21620.00">
        <route edges="283068687#0 225924659#0 225924659#2 -283068690 -225924660 132610090 125777193"/>
    </vehicle>
    <vehicle id="42148_42148_361_0" type="pkw" depart="21620.00">
        <route edges="283068687#0 225924654 283068686 19724433#0 -19724467 -19659693#2 -19659693#1 -19659693#0 19724500#1 -316929105#6 19724715#0 -19724650#4 26692357 -182441350#1 -334492399#1 -166128467 -334482140 334482139 334482137 166128470 -334482138 -205272293 -132408354 202705923 205272294 -338407172#2 -338407172#1 160797930 -129382742#0 -61482903#6 -61482903#5 -61482903#3 -129382750 -296950370#1 -338407173#4 -338407173#0 281213053#0 338407168#0 131383236#0 37131468#0 37131472#0 131382643#0 226991212 -70913328#1 132406519#0 132406526 132406532 301084578 301084571 81852045 301084584 301084580 219205215 219205215-AddedOffRampEdge 155328302 274976185 25478930 111465048#0 9533192#4 9533192#6 49532099#0 155581397 155778324#2 155778324#4 260714009#0 260714009#1 61732797#3 61732797#6 309637400#0 309637399#0 309637399#2 185273677#1 28675445#0 28675445#2 25597251#0 155602773#0 155602773#2 134074458#0 134074458#4 134074458#14"/>
    </vehicle>
    <vehicle id="34232_34232_352_0" type="pkw" depart="21621.00">
        <route edges="31302705#0 254655128#1 45492447#0 45492447#1 45492447#2 245700272 146235968 146235963 245703240 9519690 245703238#0 245703238#1 245703238#3 9494307 198352114#0 9636773"/>
    </vehicle>
    <vehicle id="35717_35717_354_0" type="pkw" depart="21621.00">
        <route edges="8066530 323472768#5 323472768#6 323472768#7 323472768#9 323472768#10 323472768#12 323472768#13 323472768#14 323472768#15 323472768#16 323472768#17 148324131#0 148324143#0 207881868#1 207881868#3 207881868#4 198180159#0 -132540158#2"/>
    </vehicle>